Version 4
SHEET 1 3320 2020
WIRE 2672 -608 2512 -608
WIRE 2800 -608 2672 -608
WIRE 3120 -608 2896 -608
WIRE 2512 -576 2512 -608
WIRE 2672 -496 2672 -608
WIRE 2768 -496 2672 -496
WIRE 2848 -496 2848 -544
WIRE 3120 -464 3120 -608
WIRE 2848 -432 2848 -496
WIRE 2512 -288 2512 -496
WIRE 2848 -288 2848 -368
WIRE 2848 -288 2512 -288
WIRE 2848 -224 2848 -288
WIRE 3120 -224 3120 -384
WIRE 1552 -176 1392 -176
WIRE 1680 -176 1552 -176
WIRE 2000 -176 1776 -176
WIRE 272 -144 160 -144
WIRE 320 -144 272 -144
WIRE 400 -144 320 -144
WIRE 480 -144 400 -144
WIRE 560 -144 480 -144
WIRE 640 -144 560 -144
WIRE 720 -144 640 -144
WIRE 800 -144 720 -144
WIRE 880 -144 800 -144
WIRE 1152 -144 880 -144
WIRE 1392 -144 1392 -176
WIRE 1392 -144 1152 -144
WIRE 160 -80 -128 -80
WIRE 1552 -64 1552 -176
WIRE 1648 -64 1552 -64
WIRE 1728 -64 1728 -112
WIRE 3136 -48 2880 -48
WIRE -128 -32 -128 -80
WIRE 320 -32 320 -144
WIRE 400 -32 400 -144
WIRE 480 -32 480 -144
WIRE 560 -32 560 -144
WIRE 640 -32 640 -144
WIRE 720 -32 720 -144
WIRE 800 -32 800 -144
WIRE 880 -32 880 -144
WIRE 2000 -32 2000 -176
WIRE 2880 -32 2880 -48
WIRE 1728 0 1728 -64
WIRE 3216 16 3216 -48
WIRE -128 96 -128 48
WIRE 272 96 272 -80
WIRE 272 96 -128 96
WIRE 160 128 160 -80
WIRE 272 128 272 96
WIRE 1728 128 1728 64
WIRE 2000 128 2000 48
WIRE 272 192 160 192
WIRE 320 192 320 32
WIRE 320 192 272 192
WIRE 400 192 400 32
WIRE 400 192 320 192
WIRE 432 192 400 192
WIRE 480 192 480 32
WIRE 480 192 432 192
WIRE 560 192 560 32
WIRE 560 192 480 192
WIRE 640 192 640 32
WIRE 640 192 560 192
WIRE 720 192 720 32
WIRE 720 192 640 192
WIRE 800 192 800 32
WIRE 800 192 720 192
WIRE 880 192 880 32
WIRE 880 192 800 192
WIRE 2880 192 2880 48
WIRE 3216 192 3216 80
WIRE 3216 192 2880 192
WIRE 432 224 432 192
WIRE 1744 224 1504 224
WIRE 1936 224 1808 224
WIRE 3216 224 3216 192
WIRE 1152 368 1152 -144
WIRE 1504 368 1504 224
WIRE 1504 368 1152 368
WIRE 1616 368 1504 368
WIRE 1936 368 1936 224
WIRE 1936 368 1872 368
WIRE 2048 368 1936 368
WIRE 2048 384 2048 368
WIRE 1504 400 1504 368
WIRE 1936 400 1936 368
WIRE 1504 512 1504 464
WIRE 1744 512 1744 464
WIRE 1744 512 1504 512
WIRE 1936 512 1936 464
WIRE 1936 512 1744 512
WIRE 1744 528 1744 512
WIRE 2048 528 2048 464
WIRE 1152 752 1152 368
WIRE 1488 752 1152 752
WIRE 1728 752 1584 752
WIRE 1904 752 1728 752
WIRE 2064 752 1984 752
WIRE 2256 752 2064 752
WIRE 2256 800 2256 752
WIRE 2064 816 2064 752
WIRE 1728 832 1728 752
WIRE 1568 864 1568 800
WIRE 1568 992 1568 944
WIRE 1728 992 1728 896
WIRE 2064 1008 2064 880
WIRE 2256 1008 2256 880
FLAG 432 224 0
FLAG 1728 128 0
FLAG 2000 128 0
FLAG 3216 224 0
FLAG 2848 -224 0
FLAG 3120 -224 0
FLAG 1744 528 0
FLAG 2048 528 0
FLAG 1728 992 0
FLAG 2064 1008 0
FLAG 2256 1008 0
FLAG 1568 992 0
SYMBOL voltage -128 -48 R0
WINDOW 123 0 0 Left 0
WINDOW 39 0 0 Left 0
SYMATTR InstName V1
SYMATTR Value SINE(0 18 50 0)
SYMBOL diode 176 -80 R180
WINDOW 0 24 64 Left 2
WINDOW 3 24 0 Left 2
SYMATTR InstName D1
SYMATTR Value DI_1N4001
SYMBOL diode 288 -80 R180
WINDOW 0 24 64 Left 2
WINDOW 3 24 0 Left 2
SYMATTR InstName D2
SYMATTR Value DI_1N4001
SYMBOL diode 176 192 R180
WINDOW 0 24 64 Left 2
WINDOW 3 24 0 Left 2
SYMATTR InstName D3
SYMATTR Value DI_1N4001
SYMBOL diode 288 192 R180
WINDOW 0 24 64 Left 2
WINDOW 3 24 0 Left 2
SYMATTR InstName D4
SYMATTR Value DI_1N4001
SYMBOL cap 304 -32 R0
SYMATTR InstName C1
SYMATTR Value 2mF
SYMBOL cap 384 -32 R0
SYMATTR InstName C2
SYMATTR Value 2mF
SYMBOL cap 464 -32 R0
SYMATTR InstName C3
SYMATTR Value 2mF
SYMBOL cap 544 -32 R0
SYMATTR InstName C4
SYMATTR Value 2mF
SYMBOL cap 624 -32 R0
SYMATTR InstName C5
SYMATTR Value 2mF
SYMBOL cap 704 -32 R0
SYMATTR InstName C6
SYMATTR Value 2mF
SYMBOL cap 784 -32 R0
SYMATTR InstName C7
SYMATTR Value 2mF
SYMBOL cap 864 -32 R0
SYMATTR InstName C8
SYMATTR Value 1.8mF
SYMBOL zener 1744 64 R180
WINDOW 0 24 64 Left 2
WINDOW 3 24 0 Left 2
SYMATTR InstName D5
SYMATTR Value BZX84C13VLY
SYMBOL npn 1680 -112 R270
SYMATTR InstName Q1
SYMATTR Value QBD135-16
SYMBOL res 1744 -80 R90
WINDOW 0 0 56 VBottom 2
WINDOW 3 32 56 VTop 2
SYMATTR InstName R1
SYMATTR Value 150
SYMBOL zener 3232 80 R180
WINDOW 0 24 64 Left 2
WINDOW 3 24 0 Left 2
SYMATTR InstName D6
SYMATTR Value BZX84C13VLY
SYMBOL res 3232 -64 R90
WINDOW 0 0 56 VBottom 2
WINDOW 3 32 56 VTop 2
SYMATTR InstName R2
SYMATTR Value 125
SYMBOL voltage 2880 -48 R0
WINDOW 123 0 0 Left 0
WINDOW 39 0 0 Left 0
SYMATTR InstName V3
SYMATTR Value 15
SYMBOL res 1984 -48 R0
SYMATTR InstName R3
SYMATTR Value 24
SYMBOL zener 2864 -368 R180
WINDOW 0 24 64 Left 2
WINDOW 3 24 0 Left 2
SYMATTR InstName D7
SYMATTR Value BZX84C13VLY
SYMBOL npn 2800 -544 R270
SYMATTR InstName Q2
SYMATTR Value QBD135-16
SYMBOL res 2864 -512 R90
WINDOW 0 0 56 VBottom 2
WINDOW 3 32 56 VTop 2
SYMATTR InstName R4
SYMATTR Value 150
SYMBOL res 3104 -480 R0
SYMATTR InstName R5
SYMATTR Value 24
SYMBOL voltage 2512 -592 R0
WINDOW 123 0 0 Left 0
WINDOW 39 0 0 Left 0
SYMATTR InstName V2
SYMATTR Value 1
SYMBOL 7805 1744 368 R0
SYMATTR InstName U1
SYMBOL cap 1920 400 R0
SYMATTR InstName C9
SYMATTR Value 0.1µ
SYMBOL cap 1488 400 R0
SYMATTR InstName C10
SYMATTR Value 0.22µ
SYMBOL diode 1808 208 R90
WINDOW 0 0 32 VBottom 2
WINDOW 3 32 32 VTop 2
SYMATTR InstName D8
SYMATTR Value DI_1N4002
SYMBOL res 2032 368 R0
SYMATTR InstName R6
SYMATTR Value 10
SYMBOL nmos 1488 800 R270
SYMATTR InstName M1
SYMATTR Value BSC093N04LS
SYMBOL schottky 1744 896 R180
WINDOW 0 24 64 Left 2
WINDOW 3 -104 -3 Left 2
SYMATTR InstName D9
SYMATTR Value B530C
SYMATTR Description Diode
SYMATTR Type diode
SYMBOL ind 1888 768 R270
WINDOW 0 32 56 VTop 2
WINDOW 3 5 56 VBottom 2
SYMATTR InstName L1
SYMATTR Value 44µ
SYMATTR SpiceLine Ipk=7.3 Rser=0.35 Rpar=0 Cpar=0
SYMBOL cap 2048 816 R0
SYMATTR InstName C11
SYMATTR Value 4.3m
SYMATTR SpiceLine V=25 Irms=5.5 Rser=10m Lser=0
SYMBOL res 2240 784 R0
SYMATTR InstName R7
SYMATTR Value 1.65
SYMBOL voltage 1568 848 R0
WINDOW 3 -363 96 Left 2
WINDOW 123 0 0 Left 0
WINDOW 39 0 0 Left 0
SYMATTR Value PULSE(0 33 0 0 0 12.5us 50us)
SYMATTR InstName V4
TEXT 328 -296 Left 2 !.MODEL DI_1N4001 D  ( IS=76.9p RS=42.0m BV=50.0 IBV=5.00u\n+ CJO=39.8p  M=0.333 N=1.45 TT=4.32u )
TEXT -80 360 Left 2 !*\n.MODEL QBD135-16 NPN( \n+     IS = 4.815E-14 \n+     NF = 0.9897 \n+     ISE = 1.389E-14 \n+     NE = 1.6 \n+     BF = 124.2 \n+     IKF = 1.6 \n+     VAF = 222 \n+     NR = 0.9895 \n+     ISC = 1.295E-13 \n+     NC = 1.183 \n+     BR = 13.26 \n+     IKR = 0.29 \n+     VAR = 81.4 \n+     RB = 0.5 \n+     IRB = 1E-06 \n+     RBM = 0.5 \n+     RE = 0.165 \n+     RC = 0.096 \n+     XTB = 0 \n+     EG = 1.11 \n+     XTI = 3 \n+     CJE = 1.243E-10 \n+     VJE = 0.7313 \n+     MJE = 0.3476 \n+     TF = 6.478E-10 \n+     XTF = 29 \n+     VTF = 2.648 \n+     ITF = 3.35 \n+     PTF = 0 \n+     CJC = 3.04E-11 \n+     VJC = 0.5642 \n+     MJC = 0.4371 \n+     XCJC = 0.15 \n+     TR = 1E-32 \n+     CJS = 0 \n+     VJS = 0.75 \n+     MJS = 0.333 \n+     FC = 0.9359 )\n*\n \n*
TEXT 680 352 Left 2 !.tran 100m
TEXT -64 256 Left 2 !.lib "7805.txt"
TEXT 680 488 Left 2 !.lib "LM317.txt"
TEXT 1136 -424 Left 2 !.MODEL DI_1N4002 D  ( IS=76.9p RS=42.0m BV=100 IBV=5.00u\n+ CJO=39.8p  M=0.333 N=1.45 TT=4.32u )
